Circuit: * Z:\home\abram\documents\psu\ECE411\project\hareproject\simulations\simple_VCF_simulation.asc

WARNING: Less than two connections to node NC_02.  This node is used by Q:U1:_U2:_Q1.
WARNING: Less than two connections to node NC_01.  This node is used by Q:U1:_U2:_Q2.
WARNING: Less than two connections to node N002.  This node is used by R8.
Direct Newton iteration failed to find .op point.  (Use ".option noopiter" to skip.)
Starting Gmin stepping
Gmin = 10
Gmin = 1.07374
Gmin = 0.115292
Gmin = 0.0123794
Gmin = 0.00132923
Gmin = 0.000142725
Gmin = 1.5325e-005
vernier = 0.5
vernier = 0.25
vernier = 0.125
Gmin = 4.01735e-006
vernier = 0.0625
vernier = 0.0833333
Gmin = 3.42336e-006
vernier = 0.111111
vernier = 0.0555555
Gmin = 2.82525e-006
vernier = 0.0277778
vernier = 0.0138889
vernier = 0.00694444
vernier = 0.00347222
vernier = 0.00173611
Gmin = 2.85457e-006
vernier = 0.000868055
vernier = 0.000434028
Gmin = 0
Gmin stepping failed

Starting source stepping with srcstepmethod=0
Source Step = 3.0303%
Source Step = 33.3333%
Source Step = 63.6364%
Source Step = 93.9394%
Source stepping succeeded in finding the operating point.

.step vc=1
.step vc=2
.step vc=3
.step vc=4
.step vc=5

Date: Sun Oct 08 22:07:32 2017
Total elapsed time: 4.558 seconds.

tnom = 27
temp = 27
method = trap
totiter = 2216
traniter = 0
tranpoints = 0
accept = 0
rejected = 0
matrix size = 50
fillins = 38
solver = Normal
Matrix Compiler1:     298 opcodes
Matrix Compiler2: off  [1.4]/2.2/4.4


