Circuit: * Z:\home\abram\psu\ECE411\project\hareproject\simulations\simple_VCF_simulation.asc

WARNING: Node NC_04 is floating.

WARNING: Less than two connections to node NC_02.  This node is used by Q:U1:_U2:_Q1.
WARNING: Less than two connections to node NC_01.  This node is used by Q:U1:_U2:_Q2.
WARNING: Less than two connections to node N002.  This node is used by R8.
WARNING: Less than two connections to node NC_04.  This node is used by C7.
Direct Newton iteration failed to find .op point.  (Use ".option noopiter" to skip.)
Starting Gmin stepping
Gmin = 10
Gmin = 1.07374
Gmin = 0.115292
Gmin = 0.0123794
Gmin = 0.00132923
Gmin = 0.000142725
Gmin = 1.5325e-005
vernier = 0.5
vernier = 0.25
Gmin = 3.78103e-006
vernier = 0.333333
vernier = 0.166667
vernier = 0.0833333
Gmin = 2.84698e-006
vernier = 0.0416667
vernier = 0.0208333
vernier = 0.0104167
vernier = 0.00520833
vernier = 0.00260417
vernier = 0.00130208
Gmin = 2.86143e-006
vernier = 0.000651042
vernier = 0.000868055
Gmin = 2.85662e-006
vernier = 0.00115741
vernier = 0.000578703
vernier = 0.000434027
Gmin = 0
Gmin stepping failed

Starting source stepping with srcstepmethod=0
Source Step = 3.0303%
Source Step = 33.3333%
Source Step = 63.6364%
Source Step = 93.9394%
Source stepping succeeded in finding the operating point.

.step vc=0
.step vc=1
.step vc=2
.step vc=3
.step vc=4
.step vc=5

Date: Wed Oct 18 16:33:04 2017
Total elapsed time: 5.603 seconds.

tnom = 27
temp = 27
method = trap
totiter = 2360
traniter = 0
tranpoints = 0
accept = 0
rejected = 0
matrix size = 51
fillins = 38
solver = Normal
Matrix Compiler1:     298 opcodes
Matrix Compiler2: off  [1.5]/2.1/3.7


